LAMMPS (2 Aug 2023 - Update 1)
Loaded 1 plugins from /tigress/yifanl/usr/licensed/anaconda3/2021.11/envs/dp-v2.2.7/lib/deepmd_lmp
timer timeout 00:55:40 every 500
New timer settings: style=normal  mode=nosync  timeout=00:55:40
units           metal
boundary        p p p
atom_style      atomic
atom_modify     map yes

neighbor        2.0 bin
neigh_modify    every 10 delay 0 check yes

read_data data.300K_liq128H2O_200ps
Reading data file ...
  orthogonal box = (-0.31180958 -0.31180958 -0.31180958) to (15.31181 15.31181 15.31181)
  reading atoms ...
  384 atoms
  reading velocities ...
  384 velocities

mass 		1 15.9994
mass		2 1.00794
pair_style deepmd ../model/frozen_model_compressed.pb
Summary of lammps deepmd module ...
  >>> Info of deepmd-kit:
  installed to:       /tigress/yifanl/usr/licensed/anaconda3/2021.11/envs/dp-v2.2.7
  source:             v2.2.7
  source branch:       HEAD
  source commit:      839f4fe7
  source commit at:   2023-10-27 21:10:24 +0800
  surpport model ver.:1.1
  build variant:      cuda
  build with tf inc:  /tigress/yifanl/usr/licensed/anaconda3/2021.11/envs/dp-v2.2.7/lib/python3.11/site-packages/tensorflow/include;/tigress/yifanl/usr/licensed/anaconda3/2021.11/envs/dp-v2.2.7/lib/python3.11/site-packages/tensorflow/include
  build with tf lib:  /tigress/yifanl/usr/licensed/anaconda3/2021.11/envs/dp-v2.2.7/lib/python3.11/site-packages/tensorflow/libtensorflow_cc.so.2
  set tf intra_op_parallelism_threads: 0
  set tf inter_op_parallelism_threads: 0
  >>> Info of lammps module:
  use deepmd-kit at:  /tigress/yifanl/usr/licensed/anaconda3/2021.11/envs/dp-v2.2.7
  source:             v2.2.7
  source branch:      HEAD
  source commit:      839f4fe7
  source commit at:   2023-10-27 21:10:24 +0800
  build float prec:   double
  build with tf inc:  /tigress/yifanl/usr/licensed/anaconda3/2021.11/envs/dp-v2.2.7/lib/python3.11/site-packages/tensorflow/include;/tigress/yifanl/usr/licensed/anaconda3/2021.11/envs/dp-v2.2.7/lib/python3.11/site-packages/tensorflow/include
  build with tf lib:  /tigress/yifanl/usr/licensed/anaconda3/2021.11/envs/dp-v2.2.7/lib/python3.11/site-packages/tensorflow/libtensorflow_cc.so.2
pair_coeff      * *

fix 1 all npt temp 300.0 300.0 0.1 iso 1.0 1.0 0.5

dump            1 all custom 500 01.xyz id type x y z
dump_modify     1 append no sort id format line "%d %d %.3f %.3f %.3f %.3f %.3f %.3f"

timestep 5e-4
thermo_style custom step temp pe etotal vol density
thermo          500
thermo_modify format line "%d %.6e %.6e %.6e %.6e %.6e %.6e %.6e %.6e %.6e %.6e %.6e %.6e %.6e %.6e %.6e %.6e"

run 200000

CITE-CITE-CITE-CITE-CITE-CITE-CITE-CITE-CITE-CITE-CITE-CITE-CITE

Your simulation uses code contributions which should be cited:

- USER-DEEPMD package:

@article{Wang_ComputPhysCommun_2018_v228_p178,
  author = {Wang, Han and Zhang, Linfeng and Han, Jiequn and E, Weinan},
  doi = {10.1016/j.cpc.2018.03.016},
  url = {https://doi.org/10.1016/j.cpc.2018.03.016},
  year = 2018,
  month = {jul},
  publisher = {Elsevier {BV}},
  volume = 228,
  journal = {Comput. Phys. Commun.},
  title = {{DeePMD-kit: A deep learning package for many-body potential energy representation and molecular dynamics}},
  pages = {178--184}
}
@misc{Zeng_JChemPhys_2023_v159_p054801,
  title  = {{DeePMD-kit v2: A software package for deep potential models}},
  author =   {Jinzhe Zeng and Duo Zhang and Denghui Lu and Pinghui Mo and Zeyu Li
         and Yixiao Chen and Mari{\'a}n Rynik and Li'ang Huang and Ziyao Li and
         Shaochen Shi and Yingze Wang and Haotian Ye and Ping Tuo and Jiabin
         Yang and Ye Ding and Yifan Li and Davide Tisi and Qiyu Zeng and Han
         Bao and Yu Xia and Jiameng Huang and Koki Muraoka and Yibo Wang and
         Junhan Chang and Fengbo Yuan and Sigbj{\o}rn L{\o}land Bore and Chun
         Cai and Yinnian Lin and Bo Wang and Jiayan Xu and Jia-Xin Zhu and
         Chenxing Luo and Yuzhi Zhang and Rhys E A Goodall and Wenshuo Liang
         and Anurag Kumar Singh and Sikai Yao and Jingchao Zhang and Renata
         Wentzcovitch and Jiequn Han and Jie Liu and Weile Jia and Darrin M
         York and Weinan E and Roberto Car and Linfeng Zhang and Han Wang},
  journal =  {J. Chem. Phys.},
  volume =   159,
  issue =    5,
  year =    2023,
  pages  =   054801,
  doi =      {10.1063/5.0155600},
}

CITE-CITE-CITE-CITE-CITE-CITE-CITE-CITE-CITE-CITE-CITE-CITE-CITE

Generated 0 of 1 mixed pair_coeff terms from geometric mixing rule
Step          Temp          PotEng         TotEng         Volume        Density
0 3.299259e+02 -5.990740e+04 -5.989107e+04 3.813686e+03 1.004049e+00
Averages over the last 201 of 401 rows, steps 100000 to 200000:
Temp PotEng TotEng Volume Density
300.124 -59904.5 -59889.6 4214.72 0.908935
Loop time of 458.767 on 1 procs for 200000 steps with 384 atoms
